FoamFile
{
    version         1.4;
    format          ascii;

    root            "";
    case            "";
    instance        "constant";
    local           "";

    class           dictionary;
    object          gmtDict;
}

// How to plot
// Compulsory inputs
projection "X18c/18c";
projection2D XY;

FieldsToPlot
(
    [h filledContours 0 0 0 "$GMTU/colours/white_colour_white.cpt"]
    [buoyant.Uf vectors 5 5 "red"]
    [stable.Uf vectors 5 5 "black"]
);

plotBoundaryDots false;
annotate "minMax 0 -38000";

