/*---------------------------------------------------------------------------*\
| =========                 |                                                 |
| \\      /  F ield         | OpenFOAM: The Open Source CFD Toolbox           |
|  \\    /   O peration     | Version:  1.4                                   |
|   \\  /    A nd           | Web:      http://www.openfoam.org               |
|    \\/     M anipulation  |                                                 |
\*---------------------------------------------------------------------------*/

FoamFile
{
    version         2.0;
    format          ascii;

    root            "";
    case            "";
    instance        "";
    local           "";

    class           dictionary;
    object          fvSchemes;
}

// * * * * * * * * * * * * * * * * * * * * * * * * * * * * * * * * * * * * * //

ddtSchemes
{
    default Euler;
}

gradSchemes
{
    default         none;
    curl((streamFunction*(0,0,1))) Gauss linear;
    linearUpwind Gauss linear;
    
    grad(h)        Gauss linear;
}

divSchemes
{
    default         none;
    div(U,u)        Gauss linear;
    div(phi,U)      Gauss linear;
    div(volFlux,h)     Gauss upwind; //Gauss vanLeer;
    
    div(volFlux,u)     Gauss upwind;
}

laplacianSchemes
{
    default         none;
    h                         Gauss linear uncorrected;
    laplacian(streamFunction) Gauss linear uncorrected;
    laplacian(h)              Gauss linear uncorrected;
}

interpolationSchemes
{
    default            none;
    H                  linear;
    Uf                 linear;
    interpolate(U)     linear;
    flux((twoOmega^U)) linear;
    flux(convection(phi,U)) linear;
    
    interpolate(grad(Uf))  upwind volFlux;//linearUpwind stable.volFlux linearUpwind; //;
    interpolate(h)                linear;
    
    interpolate((convection(volFlux,U)-(U*div(volFlux))))   linear;
}

snGradSchemes
{
    default         uncorrected;
    snGrad(h)       uncorrected;
    snGrad(p)       uncorrected;
}

fluxRequired
{
    default         no;
    h;
}


// ************************************************************************* //
