/*---------------------------------------------------------------------------*\
| =========                 |                                                 |
| \\      /  F ield         | OpenFOAM: The Open Source CFD Toolbox           |
|  \\    /   O peration     | Version:  1.4                                   |
|   \\  /    A nd           | Web:      http://www.openfoam.org               |
|    \\/     M anipulation  |                                                 |
\*---------------------------------------------------------------------------*/

FoamFile
{
    version         2.0;
    format          ascii;

    root            "";
    case            "";
    instance        "";
    local           "";

    class           dictionary;
    object          fvSchemes;
}

// * * * * * * * * * * * * * * * * * * * * * * * * * * * * * * * * * * * * * //

ddtSchemes
{
    default Euler;
}

gradSchemes
{
    default         none;
    curl((streamFunction*(0,0,1))) Gauss linear;
    linearUpwind Gauss linear;
    
    grad(stable.sigmah)        Gauss linear;
    grad(buoyant.sigmah)       Gauss linear;
    grad(stable.sigmah_0)      Gauss linear;
    grad(buoyant.sigmah_0)     Gauss linear;
    grad(stable.sigma)    Gauss linear;
    grad(buoyant.sigma)   Gauss linear;
    grad(tr(grad(stable.Uf)))     Gauss linear;
    grad(tr(grad(buoyant.Uf)))    Gauss linear;
}

divSchemes
{
    default         Gauss upwind;
}

laplacianSchemes
{
    default         Gauss linear uncorrected;
    h                         Gauss linear uncorrected;
    laplacian(h)              Gauss linear uncorrected;
}

interpolationSchemes
{
    default            linear;
    
    interpolate(grad(stable.Uf))  upwind stable.volFlux;
    interpolate(grad(buoyant.Uf)) upwind buoyant.volFlux;
}

snGradSchemes
{
    default         uncorrected;
    snGrad(h)       uncorrected;
}

fluxRequired
{
    default         no;
    h;
}


// ************************************************************************* //
