FoamFile
{
    version         1.4;
    format          ascii;

    root            "";
    case            "";
    instance        "constant";
    local           "";

    class           dictionary;
    object          gmtDict;
}

// How to plot
// Compulsory inputs
projection "X18c/18c";
projection2D XY;

FieldsToPlot
(
    [buoyant.sigma filledContours -0.1 0.1 0.01 "$GMTU/colours/red_white_blue.cpt"]
    [stable.Uf vectors 1e4 5 "black"]
    [buoyant.Uf vectors 1e4 5 "grey"]
);

plotBoundaryDots false;
annotate "minMax 0 -38000";
region "0/9e6/0/9e6";

