/*--------------------------------*- C++ -*----------------------------------*\
| =========                 |                                                 |
| \\      /  F ield         | OpenFOAM: The Open Source CFD Toolbox           |
|  \\    /   O peration     | Version:  dev                                   |
|   \\  /    A nd           | Web:      www.OpenFOAM.org                      |
|    \\/     M anipulation  |                                                 |
\*---------------------------------------------------------------------------*/
FoamFile
{
    version     2.0;
    format      ascii;
    class       dictionary;
    object      setFieldsDict;
}
// * * * * * * * * * * * * * * * * * * * * * * * * * * * * * * * * * * * * * //

defaultFieldValues
(
    volScalarFieldValue sigma.stable 0.5
    volScalarFieldValue sigma.buoyant 0.5
    volScalarFieldValue h 1
    volVectorFieldValue u.stable (0.0128205128205 0 0)
    volVectorFieldValue u.buoyant (0.25641025641 0 0)
);

regions
(
    // Set cell values
    // (does zerogradient on boundaries)
    boxToCell
    {
        box (0.25 0 0) (0.75 1 1);

        fieldValues
        (
            volScalarFieldValue sigma.stable 0.5
            volScalarFieldValue sigma.buoyant 0.5
            volScalarFieldValue h 0.9
            volVectorFieldValue u.stable (0.0115384615385 0 0)
            volVectorFieldValue u.buoyant (0.230769230769 0 0)
        );
    }

);

// ************************************************************************* //
