/*---------------------------------------------------------------------------*\
| =========                 |                                                 |
| \\      /  F ield         | OpenFOAM: The Open Source CFD Toolbox           |
|  \\    /   O peration     | Version:  1.4                                   |
|   \\  /    A nd           | Web:      http://www.openfoam.org               |
|    \\/     M anipulation  |                                                 |
\*---------------------------------------------------------------------------*/

FoamFile
{
    version         2.0;
    format          ascii;

    root            "";
    case            "";
    instance        "";
    local           "";

    class           dictionary;
    object          environmentalProperties;
}

// * * * * * * * * * * * * * * * * * * * * * * * * * * * * * * * * * * * * * //

cloudRadiusMax     cloudRadiusMax [0 1 0 0 0] 1000;
cloudRadiusMin     cloudRadiusMin [0 1 0 0 0] 1;
dragCoeff       0;
divCoeff        1;
Ksigma Ksigma [0 2 -1 0 0] 1000;//2000;
minSigma  1e-16;
// Transfer between partitions based on horizontal divergence
wTransfer false;
divTransfer true;
// Transfer between partitions based on laplacian(theta)
thetaTransfer true;
thetaTransferDiffusivity thetaTransferDiffusivity  [0 2 -1 0 0] 100000;

thetaVarTransfer                                        true;
thetaVarTimescale   thetaVarTimeScale   [0 0 1 0 0]     1;
localThetaVarTransfer                                   false;
wVarTransfer                                            true;
wVarTimescale       wVarTimeScale       [0 0 1 0 0]     1;

Kw Kw [0 2 -1 0 0] 1000;
Ktheta Ktheta [0 2 -1 0 0] 0;

// ************************************************************************* //
