/*---------------------------------------------------------------------------*\
| =========                 |                                                 |
| \\      /  F ield         | OpenFOAM: The Open Source CFD Toolbox           |
|  \\    /   O peration     | Version:  1.4                                   |
|   \\  /    A nd           | Web:      http://www.openfoam.org               |
|    \\/     M anipulation  |                                                 |
\*---------------------------------------------------------------------------*/

FoamFile
{
    version         2.0;
    format          ascii;

    root            "";
    case            "";
    instance        "";
    local           "";

    class           dictionary;
    object          fvSchemes;
}

// * * * * * * * * * * * * * * * * * * * * * * * * * * * * * * * * * * * * * //

ddtSchemes
{
    default Euler;
}

gradSchemes
{
    default         none;
    grad(magSqr(stable.u))     Gauss linear;
    grad(magSqr(buoyant.u))    Gauss linear;
    linearUpwind               Gauss linear;
    grad(stable.h_0)           Gauss linear;
    grad(buoyant.h_0)          Gauss linear;
    grad(magSqr(stable.u_0))   Gauss linear;
    grad(magSqr(buoyant.u_0))  Gauss linear;
    stable                     Gauss upwind stable.volFlux;//Gauss linear;
    buoyant                    Gauss upwind buoyant.volFlux;//Gauss linear;
    grad(h)                    Gauss linear;
    grad(magSqr(stable.hu_0))    Gauss linear;
    grad(magSqr(buoyant.hu_0))   Gauss linear;
}

divSchemes
{
    default         none;
    //Needed for governing equations.
    div(stable.volFlux,stable.h)         Gauss upwind;
    div(buoyant.volFlux,buoyant.h)       Gauss upwind;
    div(stable.volFlux_0,stable.h_0)     Gauss upwind;
    div(buoyant.volFlux_0,buoyant.h_0)   Gauss upwind;
    
    div(stable.volFlux,stable.hu)        Gauss upwind;//Gauss APVM stable.Uf;//Gauss upwind;
    div(buoyant.volFlux,buoyant.hu)      Gauss upwind;//Gauss APVM buoyant.Uf;//Gauss upwind;
    div(stable.volFlux_0,stable.hu_0)    Gauss upwind;//Gauss APVM stable.Uf;//Gauss upwind;
    div(buoyant.volFlux_0,buoyant.hu_0)  Gauss upwind;//Gauss APVM buoyant.Uf;//Gauss upwind;
}

laplacianSchemes
{
    default         none;
}

interpolationSchemes
{
    default            none;
    //Needed for governing equations.
    linear                        linear;
    interpolate(h)                linear;
    interpolate(stable.h)         linear;//upwind stable.flux_0;
    interpolate(buoyant.h)        linear;//upwind buoyant.flux_0;
    interpolate(stable.u)         linear;
    interpolate(buoyant.u)        linear;

    interpolate(stable.hu)     linear;
    interpolate(buoyant.hu)     linear;
    interpolate(volIntegrate((snGrad(stable.hu_0)*magSf)))          linear;
    interpolate(volIntegrate((snGrad(buoyant.hu_0)*magSf)))         linear;
    interpolate(volIntegrate((snGrad(stable.hu)*magSf)))            linear;
    interpolate(volIntegrate((snGrad(buoyant.hu)*magSf)))           linear;
}

snGradSchemes
{
    default         uncorrected;
    snGrad(h)       uncorrected;
}

fluxRequired
{
    default         no;
    h;
}


// ************************************************************************* //
