FoamFile
{
    version     2.0;
    format      ascii;
    class       dictionary;
    location    "constant";
    object      velocityFieldDict;
}

velocity     (1 0 0);

type uniform;
//velocityProfileType UniformVelocityProfile;
