FoamFile
{
    version         2.3;
    format          ascii;

    root            "";
    case            "";
    instance        "constant";
    local           "";

    class           dictionary;
    object          gmtDict;
}

// How to plot
// Compulsory inputs
projection "X12c/12c";
projection2D XZ;

FieldsToPlot
(
    [k        filledContours 0 2e-5 1e-6 "$GMTU/colours/white_blue_red.cpt"]
    [k.stable filledContours 0 2e-5 1e-6 "$GMTU/colours/white_blue_red.cpt"]
    [k.buoyant   colouredContours 0 2e-5 1e-6 "$GMTU/colours/white_blue_red.cpt"]
    [Uf.buoyant vectors 50 17 "red"]
    [Uf.stable vectors  50 17 "black"]
//    [Uf vectors  500 5 "black"]
);

separateLegend true;
region "-5000/5000/0/1e4";
//region "0/9e3/0/9e3";
//annotate "minMax 3e3 -800";
boundaryMarks "2.5e3/2.5e3";
plotBoundaryDots false;
