FoamFile
{
    version         2.3;
    format          ascii;

    root            "";
    case            "";
    instance        "constant";
    local           "";

    class           dictionary;
    object          gmtDict;
}

// How to plot
// Compulsory inputs
projection "X12c/12c";
projection2D XZ;

FieldsToPlot
(
    [nut    filledContours 0 3 0.025 "$GMTU/colours/white_blue_red.cpt"]
    [nut.stable    filledContours 0 3 0.025 "$GMTU/colours/white_blue_red.cpt"]
//    [nut.buoyant   colouredContours 0 0 0 "$GMTU/colours/white_blue_red.cpt"]
    [Uf.buoyant vectors 500 5 "red"]
    [Uf.stable vectors  500 5 "black"]
    [Uf vectors  500 5 "black"]
);

separateLegend true;
region "0/9e3/0/9e3";
annotate "minMax 3e3 -800";
boundaryMarks "1e3/1e3";
plotBoundaryDots false;
