/*---------------------------------------------------------------------------*\
| =========                 |                                                 |
| \\      /  F ield         | OpenFOAM: The Open Source CFD Toolbox           |
|  \\    /   O peration     | Version:  1.4                                   |
|   \\  /    A nd           | Web:      http://www.openfoam.org               |
|    \\/     M anipulation  |                                                 |
\*---------------------------------------------------------------------------*/

FoamFile
{
    version         2.0;
    format          ascii;

    root            "";
    case            "";
    instance        "";
    local           "";

    class           dictionary;
    object          blockMeshDict;
}

// * * * * * * * * * * * * * * * * * * * * * * * * * * * * * * * * * * * * * //

convertToMeters 1000;

xmin -5;
xmax 5;
ymin 0;
ymax 10;

nx 100;
ny 100;

vertices
(
    ($xmin $ymin 0)
    ($xmax $ymin 0)
    ($xmin $ymax 0)
    ($xmax $ymax 0)
    ($xmin $ymin 1)
    ($xmax $ymin 1)
    ($xmin $ymax 1)
    ($xmax $ymax 1)
);

blocks
(
	hex (0 1 3 2 4 5 7 6)  ($nx $ny 1) simpleGrading (1 1 1)
);

edges
(
);

boundary
(
    equator
    {
        type            wall;
        faces           ((0 1 5 4));
    }
    pole
    {
        type            wall;
        faces           ((6 7 2 3));
    }
    inlet
    {
        type            cyclic;
        neighbourPatch  outlet;
        faces           ((4 6 2 0));
    }
    outlet
    {
        type            cyclic;
        neighbourPatch  inlet;
        faces           ((1 3 7 5));
    }
    front
    {
        type            empty;
        faces           ((4 5 7 6));
    }
    back
    {
        type            empty;
        faces           ((0 2 3 1));
    }
);

mergePatchPairs
(
);

// ************************************************************************* //
