FoamFile
{
    version         2.3;
    format          ascii;

    root            "";
    case            "";
    instance        "constant";
    local           "";

    class           dictionary;
    object          gmtDict;
}

// How to plot
// Compulsory inputs
projection "X12c/12c";
projection2D XZ;

FieldsToPlot
(
//    [k.stable filledContours 0 0 0 "$GMTU/colours/white_blue_red.cpt"]
    [k.diff   filledContours -1e-7 1e-7 1e-8 "$GMTU/colours/red_white_blue.cpt"]
    [Uf vectors  50 17 "black"]
    [Uf.diff vectors 1e5 13 "grey"]
);

separateLegend true;
region "-5000/5000/0/1e4";
//region "0/9e3/0/9e3";
annotate "minMax -3e3 -600";
boundaryMarks "2.5e3/2.5e3";
plotBoundaryDots false;
