/*---------------------------------------------------------------------------*| =========                 |                                                 |
| \      /  F ield         | OpenFOAM: The Open Source CFD Toolbox           |
|  \    /   O peration     | Version:  1.4                                   |
|   \  /    A nd           | Web:      http://www.openfoam.org               |
|    \/     M anipulation  |                                                 |
\*---------------------------------------------------------------------------*/

FoamFile
{
    version         2.0;
    format          ascii;

    root            "";
    case            "";
    instance        "";
    local           "";

    class           dictionary;
    object          blockMeshDict;
}

// * * * * * * * * * * * * * * * * * * * * * * * * * * * * * * * * * * * * * //

convertToMeters 1000;

xmax  10;
xmin -10;
nx 200;

vertices
(
    ($xmin 1  0)
    ($xmax 1  0)
    ($xmax 1 10)
    ($xmin 1 10)
    ($xmin 0  0)
    ($xmax 0  0)
    ($xmax 0 10)
    ($xmin 0 10)
);


blocks
(
//    hex (0 1 2 3 4 5 6 7) (50 25 1) simpleGrading (1 1 1)
//    hex (0 1 2 3 4 5 6 7) (100 100 1) simpleGrading (1 1 1)
    hex (0 1 2 3 4 5 6 7) ($nx 100 1) simpleGrading (1 1 1)
);

edges
(
);

patches
(
    wall ground
    (
        (1 5 4 0)
    )
    wall top
    (
        (3 7 6 2)
    )
    wall left
    (
        (0 4 7 3)
    )
	wall right
    (
        (2 6 5 1)
    )
	// empty frontAndBack
    // (
    //     (0 3 2 1)
    //     (4 5 6 7)
    // )
);

mergePatchPairs
(
);

// ************************************************************************* //
