/*--------------------------------*- C++ -*----------------------------------*\
| =========                 |                                                 |
| \\      /  F ield         | OpenFOAM: The Open Source CFD Toolbox           |
|  \\    /   O peration     | Version:  dev                                   |
|   \\  /    A nd           | Web:      www.OpenFOAM.org                      |
|    \\/     M anipulation  |                                                 |
\*---------------------------------------------------------------------------*/
FoamFile
{
    version     2.0;
    format      ascii;
    class       dictionary;
    object      setFieldsDict;
}
// * * * * * * * * * * * * * * * * * * * * * * * * * * * * * * * * * * * * * //

defaultValues
(
    volScalarFieldValue sigma.stable 1
    volScalarFieldValue sigma.buoyant 0
    volScalarFieldValue theta.stable 300
    volScalarFieldValue theta.buoyant 300
    volScalarFieldValue thetaVar.stable 0
    volScalarFieldValue thetaVar.buoyant 0
);

regions
(
    // Set cell values
    sphereToCell
    {
        centre (0 500 2e3);
        radius 2e3;
        
        fieldValues
        (
            //volScalarFieldValue sigma.stable 0
            //volScalarFieldValue sigma.buoyant 1
            volScalarFieldValue sigma.stable 0.5
            volScalarFieldValue sigma.buoyant 0.5
        );
    }
);

// ************************************************************************* //
