FoamFile
{
    version         1.4;
    format          ascii;

    root            "";
    case            "";
    instance        "constant";
    local           "";

    class           dictionary;
    object          gmtDict;
}

// How to plot
// Compulsory inputs
projection "X18c/18c";
projection2D XY;
separateLegend true;

FieldsToPlot
(
    [delta_ke_centre filledContours -2.5e+4 2.5e+4 1e+2 "$GMTU/colours/red_white_blue.cpt"]
);

boundaryMarks "2500/2500";
plotBoundaryDots false;
annotate "minMax -4000 9000";

