FoamFile
{
    version         1.4;
    format          ascii;

    root            "";
    case            "";
    instance        "constant";
    local           "";

    class           dictionary;
    object          gmtDict;
}

// How to plot
// Compulsory inputs
projection "X18c/18c";
projection2D XY;
separateLegend true;

FieldsToPlot
(
    [sigma.buoyant filledContours 0 1 0.05 "$GMTU/colours/white_black.cpt"]
    [Uf.buoyant vectors 20 10 "red"]
    [Uf.stable vectors 20 10 "black"]
);

boundaryMarks "2500/2500";
plotBoundaryDots false;
annotate "minMax -4000 9000";

