FoamFile
{
    version         1.4;
    format          ascii;

    root            "";
    case            "";
    instance        "constant";
    local           "";

    class           dictionary;
    object          gmtDict;
}

// How to plot
// Compulsory inputs
projection "X18c/18c";
projection2D XY;
separateLegend true;

FieldsToPlot
(
    [buoyant.sigma filledContours 0 1 0.05 "$GMTU/colours/white_black.cpt"]
    [buoyant.Uf vectors 60 30 "red"]
    [stable.Uf vectors 60 30 "black"]
);

boundaryMarks "2500/2500";
plotBoundaryDots false;
annotate "minMax -4000 9000";

