FoamFile
{
    version     2.0;
    format      ascii;
    class       dictionary;
    location    "constant";
    object      velocityFieldDict;
}

maxVelocity		10.;
xmax            5000;
ymax            5000;
centreOfSystem    (0 5000 0);

type constructiveRotors;
velocityProfileType HorizontalVelocityProfile;
