FoamFile
{
    version         1.4;
    format          ascii;

    root            "";
    case            "";
    instance        "constant";
    local           "";

    class           dictionary;
    object          gmtDict;
}

// How to plot
// Compulsory inputs
projection "X18c/18c";
projection2D XY;
separateLegend true;

FieldsToPlot
(
    [delta_ke_face filledContours -1e+14 1e+14 4e+12 "$GMTU/colours/red_white_blue.cpt"]
);

boundaryMarks "2500/2500";
plotBoundaryDots false;
annotate "minMax -4000 9000";

