FoamFile
{
    version         2.3;
    format          ascii;

    root            "";
    case            "";
    instance        "constant";
    local           "";

    class           dictionary;
    object          gmtDict;
}

// How to plot
// Compulsory inputs
projection "X18c/18c";
projection2D XZ;

FieldsToPlot
(
    [laplacianTheta filledContours 0 0 0 "$GMTU/colours/red_white_blue.cpt"]
    [stable.theta contours 300.02 306 0.2 "black"]
    [stable.theta contours 294 299.8 0.2 "black,--"]
);

//separateLegend true;
region "-5000/5000/0/1e4";
annotate "minMax -1.2e3 400";
boundaryMarks "2500/2500";
plotBoundaryDots false;

