FoamFile
{
    version         2.3;
    format          ascii;

    root            "";
    case            "";
    instance        "constant";
    local           "";

    class           dictionary;
    object          gmtDict;
}

// How to plot
// Compulsory inputs
projection "X12c/12c";
projection2D XZ;

FieldsToPlot
(
    [rho.stable filledContours 0 0 0 "$GMTU/colours/white_blue_red.cpt"]
    [rho.diff   colouredContours 0 0 0 "$GMTU/colours/red_white_blue.cpt"]
    [u vectors  500 15 "black"]
    [u.diff vectors 1e5 13 "white"]
);

separateLegend true;
region "-5000/5000/0/1e4";
//annotate "minMax -1.2e3 400";
boundaryMarks "2500/2500";
plotBoundaryDots false;
