/*---------------------------------------------------------------------------*\
| =========                 |                                                 |
| \\      /  F ield         | OpenFOAM: The Open Source CFD Toolbox           |
|  \\    /   O peration     | Version:  1.4                                   |
|   \\  /    A nd           | Web:      http://www.openfoam.org               |
|    \\/     M anipulation  |                                                 |
\*---------------------------------------------------------------------------*/

FoamFile
{
    version         2.0;
    format          ascii;

    root            "";
    case            "";
    instance        "";
    local           "";

    class           dictionary;
    object          environmentalProperties;
}

// * * * * * * * * * * * * * * * * * * * * * * * * * * * * * * * * * * * * * //

cloudRadiusMax     cloudRadiusMax   [0 1 0 0 0]     1000;
cloudRadiusMin     cloudRadiusMin   [0 1 0 0 0]     1;
dragCoeff                                           0;
dragTransferCoeff                                   0;
divCoeff                                            1;
Ksigma Ksigma                       [0 2 -1 0 0]    3e5;//5e4;//2000;
minSigma                                            1e-9;
// Transfer between partitions based on horizontal divergence
wTransfer                                               false;
divTransfer                                             false;
dragTransfer                                            false;
// Transfer between partitions based on laplacian(theta)
thetaTransfer                                           false;
thetaTransferDiffusivity thetaTransferDiffusivity  [0 2 -1 0 0] 0;//5e4;

thetaVarTransfer                                        false;
thetaVarTimescale   thetaVarTimeScale   [0 0 1 0 0]     10;
wVarTransfer                                            false;
wVarTimescale       wVarTimeScale       [0 0 1 0 0]     5;
localThetaVarTransfer                                   false;
varMassTransfer                                         false;

Kw Kw [0 2 -1 0 0] 2e3;//4e3;
Ktheta Ktheta [0 2 -1 0 0] 0;

wVarDiffusion                                           false;
KwVariance          KwVariance          [0 2 -1 0 0]    2e6;

// ************************************************************************* //
