FoamFile
{
    version         2.3;
    format          ascii;

    root            "";
    case            "";
    instance        "constant";
    local           "";

    class           dictionary;
    object          gmtDict;
}

// How to plot
// Compulsory inputs
projection "X18c/18c";
projection2D XZ;

FieldsToPlot
(
//    [theta filledContours 300 302 0.2 "$GMTU/colours/white_blue_red.cpt"]
    [theta.diff   filledContours 0 0 0 "$GMTU/colours/red_white_blue.cpt"]
    [Uf vectors  500 17 "black"]
    [Uf.diff vectors 5e4 13 "white"]
);

//separateLegend true;
region "-5000/5000/0/1e4";
annotate "minMax -1.2e3 400";
boundaryMarks "2500/2500";
plotBoundaryDots false;
