FoamFile
{
    version     2.0;
    format      ascii;
    class       dictionary;
    location    "constant";
    object      velocityFieldDict;
}

maxVelocity		10;
xmax            1000;
ymax            1000;
centreOfSystem    (0 0 0);

type constructiveRotors;
velocityProfileType HorizontalVelocityProfile;
