FoamFile
{
    version         2.3;
    format          ascii;

    root            "";
    case            "";
    instance        "constant";
    local           "";

    class           dictionary;
    object          gmtDict;
}

// How to plot
// Compulsory inputs
projection "X18c/18c";
projection2D XZ;

FieldsToPlot
(
//    [thetaDiff filledContours -0.335 0.335 0.067 "$GMTU/colours/red_white_blue.cpt"]
//    [thetaDiff   solidContours 0 0.02 0.002]
//    [thetaDiff   dashedContours -0.02 0 0.002]
     [thetaDiff filledContours -0.2 0.2 0.1 "$GMTU/colours/grey_white_grey.cpt"]
     [thetaDiff   contours 0.1 10 0.1 "black"]
     [thetaDiff   contours 0 1000 1000 "black,1_5:0"]
     [thetaDiff   contours -10 -0.1 0.1 "black,5_5:0"]
//    [Uf vectors  500 17 "black"]
//    [Uf.diff vectors 5e4 13 "white"]
);

separateLegend true;
region "-5000/5000/0/1e4";
annotate "minMax -1.2e3 400";
boundaryMarks "2500/2500";
plotBoundaryDots false;
