/*---------------------------------------------------------------------------*\
| =========                 |                                                 |
| \\      /  F ield         | OpenFOAM: The Open Source CFD Toolbox           |
|  \\    /   O peration     | Version:  1.4                                   |
|   \\  /    A nd           | Web:      http://www.openfoam.org               |
|    \\/     M anipulation  |                                                 |
\*---------------------------------------------------------------------------*/

FoamFile
{
    version         2.0;
    format          ascii;

    root            "";
    case            "";
    instance        "";
    local           "";

    class           dictionary;
    object          environmentalProperties;
}

// * * * * * * * * * * * * * * * * * * * * * * * * * * * * * * * * * * * * * //

cloudRadiusMax     cloudRadiusMax [0 1 0 0 0] 200;
cloudRadiusMin     cloudRadiusMin [0 1 0 0 0] 1;
dragCoeff       0.5;
Ksigma Ksigma [0 2 -1 0 0] 200;
minSigma  1e-9;
// Transfer between partitions based on horizontal divergence
wTransfer false;
divTransfer false;
// Transfer between partitions based on laplacian(theta)
thetaTransfer false;
thetaTransferDiffusivity thetaTransferDiffusivity  [0 2 -1 0 0] 0;

heatSource                                              true;
heatSourceMax       heatSourceMax       [0 0 -1 1 0]    5e6;
heatSourceCentre    heatSourceCentre    [0 1 0 0 0]     (0 5e2 0);
heatSourceHeight    heatSourceHeight    [0 1 0 0 0]     (0 0 1e4);
heatSourceRadius    heatSourceRadius    [0 1 0 0 0]     2.5e3;
heatSourceDirection heatSourceDirection [0 0 0 0 0]     (1 0 0);
heatSourceDuration  heatSourceDuration  [0 0 1 0 0]     100;

thetaVarTransfer true;
thetaVarTimescale   thetaVarTimeScale   [0 0 1 0 0]    2;

// ************************************************************************* //
